scratch/acec/output_voltage.csv
# output_voltage.csv run at 2000-01-01 00:00:00 PST on 4159 nodes
node_name,voltA_real,voltA_imag,voltB_real,voltB_imag,voltC_real,voltC_imag
FRIENDSHIP,2400.000000,0.000000,-1200.000000,-2078.460969,-1200.000000,2078.460969
S1806-33-073,-57.822071,-94.782264,-57.822071,-94.782264,0.000000,0.000000
S1806-32-065,-57.826772,-94.783884,-57.826772,-94.783884,0.000000,0.000000
S1806-33-042,-57.826772,-94.783884,-57.826772,-94.783884,0.000000,0.000000
S1806-33-047,-53.345640,88.237091,-53.345640,88.237091,0.000000,0.000000
S1806-33-059,-53.345640,88.237091,-53.345640,88.237091,0.000000,0.000000
S1806-33-050,-53.357252,88.239120,-53.357252,88.239120,0.000000,0.000000
S1806-33-032,-53.361946,88.242283,-53.361946,88.242283,0.000000,0.000000
S1806-33-044,-53.369322,88.247256,-53.369322,88.247256,0.000000,0.000000
S1806-33-069,-53.373603,88.250141,-53.373603,88.250141,0.000000,0.000000
S1806-33-068,-53.380476,88.254778,-53.380476,88.254778,0.000000,0.000000
S1806-33-077,-53.406149,88.272101,-53.406149,88.272101,0.000000,0.000000
S1806-33-016,-53.415132,88.289749,-53.415132,88.289749,0.000000,0.000000
S1806-33-023,-53.415132,88.289749,-53.415132,88.289749,0.000000,0.000000
S1806-33-026,-53.415132,88.289749,-53.415132,88.289749,0.000000,0.000000
S1806-33-013,-53.420159,88.289381,-53.420159,88.289381,0.000000,0.000000
S1806-33-031,-53.420159,88.289381,-53.420159,88.289381,0.000000,0.000000
S1806-33-037,-53.420159,88.289381,-53.420159,88.289381,0.000000,0.000000
S1806-33-038,-53.420159,88.289381,-53.420159,88.289381,0.000000,0.000000
S1806-33-041,-53.451549,88.280273,-53.451549,88.280273,0.000000,0.000000
S1806-33-029,-53.462940,88.278501,-53.462940,88.278501,0.000000,0.000000
S1806-33-046,-53.462940,88.278501,-53.462940,88.278501,0.000000,0.000000
S1806-33-056,-53.488853,88.272060,-53.488853,88.272060,0.000000,0.000000
S1806-33-022,-53.498443,88.271420,-53.498443,88.271420,0.000000,0.000000
S1806-33-045,-53.498443,88.271420,-53.498443,88.271420,0.000000,0.000000
S1806-33-067,-53.498443,88.271420,-53.498443,88.271420,0.000000,0.000000
S1806-33-015,-53.547406,88.259158,-53.547406,88.259158,0.000000,0.000000
S1806-33-033,-53.569521,88.254283,-53.569521,88.254283,0.000000,0.000000
S1806-33-043,-53.587942,88.250223,-53.587942,88.250223,0.000000,0.000000
S1806-33-055,-53.607671,88.245875,-53.607671,88.245875,0.000000,0.000000
S1806-33-020,-53.629268,88.241856,-53.629268,88.241856,0.000000,0.000000
S1806-33-064,-53.629268,88.241856,-53.629268,88.241856,0.000000,0.000000
S1806-33-054,-53.676329,88.230737,-53.676329,88.230737,0.000000,0.000000
S1806-33-058,-53.704590,88.224504,-53.704590,88.224504,0.000000,0.000000
S1806-33-076,-53.721408,88.220794,-53.721408,88.220794,0.000000,0.000000
S1806-33-065,-53.737449,88.217256,-53.737449,88.217256,0.000000,0.000000
S1806-33-007,-53.762991,88.212367,-53.762991,88.212367,0.000000,0.000000
S1806-33-009,-53.762991,88.212367,-53.762991,88.212367,0.000000,0.000000
S1806-33-010,-53.798982,88.203674,-53.798982,88.203674,0.000000,0.000000
S1806-33-006,-53.815734,88.199975,-53.815734,88.199975,0.000000,0.000000
S1806-33-021,-61.327578,-92.833012,-61.327578,-92.833012,0.000000,0.000000
S1806-28-001,-61.333772,-92.829574,-61.333772,-92.829574,0.000000,0.000000
S1806-28-010,-61.333772,-92.829574,-61.333772,-92.829574,0.000000,0.000000
S1806-33-034,-61.382934,-92.756057,-61.382934,-92.756057,0.000000,0.000000
S1806-33-036,-61.382934,-92.756057,-61.382934,-92.756057,0.000000,0.000000
S1806-33-048,-61.382934,-92.756057,-61.382934,-92.756057,0.000000,0.000000
S1806-33-024,-61.421799,-92.716346,-61.421799,-92.716346,0.000000,0.000000
S1806-33-053,-61.421799,-92.716346,-61.421799,-92.716346,0.000000,0.000000
S1806-33-027,-61.417701,-92.722774,-61.417701,-92.722774,0.000000,0.000000
S1806-27-011,-61.616308,-92.451146,-61.616308,-92.451146,0.000000,0.000000
S1806-27-008,-61.616348,-92.451614,-61.616348,-92.451614,0.000000,0.000000
S1806-28-013,-61.614369,-92.428821,-61.614369,-92.428821,0.000000,0.000000
S1806-33-061,-61.627860,-92.462773,-61.627860,-92.462773,0.000000,0.000000
S1806-34-005,-61.654448,-92.436265,-61.654448,-92.436265,0.000000,0.000000
S1806-33-049,-61.659310,-92.428382,-61.659310,-92.428382,0.000000,0.000000
S1806-33-060,-61.668569,-92.416949,-61.668569,-92.416949,0.000000,0.000000
S1806-33-062,-61.668569,-92.416949,-61.668569,-92.416949,0.000000,0.000000
S1806-33-004,-61.673090,-92.420126,-61.673090,-92.420126,0.000000,0.000000
S1806-33-072,-61.663812,-92.430541,-61.663812,-92.430541,0.000000,0.000000
S1806-33-014,-61.650672,-92.445270,-61.650672,-92.445270,0.000000,0.000000
S1806-34-003,-61.643593,-92.453208,-61.643593,-92.453208,0.000000,0.000000
S1806-33-018,-61.635917,-92.461817,-61.635917,-92.461817,0.000000,0.000000
S1806-34-006,-61.629869,-92.460132,-61.629869,-92.460132,0.000000,0.000000
S1806-27-003,-61.616097,-92.451072,-61.616097,-92.451072,0.000000,0.000000
S1806-27-001,-61.608745,-92.370581,-61.608745,-92.370581,0.000000,0.000000
S1806-27-005,-61.601014,-92.285487,-61.601014,-92.285487,0.000000,0.000000
S1806-27-012,-61.601287,-92.288611,-61.601287,-92.288611,0.000000,0.000000
S1806-34-002,-61.587992,-92.144787,-61.587992,-92.144787,0.000000,0.000000
S1806-34-001,-61.539200,-91.616387,-61.539200,-91.616387,0.000000,0.000000
S1806-27-010,-61.538817,-91.612151,-61.538817,-91.612151,0.000000,0.000000
S1806-27-002,-61.520200,-91.268636,-61.520200,-91.268636,0.000000,0.000000
S1806-35-015,-61.471596,-90.887003,-61.471596,-90.887003,0.000000,0.000000
S1806-35-032,-61.458735,-90.748713,-61.458735,-90.748713,0.000000,0.000000
S1806-35-031,-61.463737,-90.751959,-61.463737,-90.751959,0.000000,0.000000
S1806-35-033,-61.463737,-90.751959,-61.463737,-90.751959,0.000000,0.000000
S1806-35-052,-61.460523,-90.767906,-61.460523,-90.767906,0.000000,0.000000
S1806-35-035,-61.462482,-90.788966,-61.462482,-90.788966,0.000000,0.000000
S1806-35-026,-61.457856,-90.687154,-61.457856,-90.687154,0.000000,0.000000
S1806-35-034,-61.457856,-90.687154,-61.457856,-90.687154,0.000000,0.000000
S1806-35-003,-61.455386,-90.660425,-61.455386,-90.660425,0.000000,0.000000
S1806-35-018,-61.455386,-90.660425,-61.455386,-90.660425,0.000000,0.000000
S1806-35-004,-61.464993,-90.713666,-61.464993,-90.713666,0.000000,0.000000
S1806-35-039,-61.464993,-90.713666,-61.464993,-90.713666,0.000000,0.000000
S1806-35-045,-61.464993,-90.713666,-61.464993,-90.713666,0.000000,0.000000
S1806-35-046,-61.460241,-90.763968,-61.460241,-90.763968,0.000000,0.000000
S1806-35-044,-61.466208,-90.828663,-61.466208,-90.828663,0.000000,0.000000
S1806-26-004,-61.497179,-91.162811,-61.497179,-91.162811,0.000000,0.000000
S1806-35-048,-61.503162,-91.227356,-61.503162,-91.227356,0.000000,0.000000
S1806-34-007,-61.575827,-92.012931,-61.575827,-92.012931,0.000000,0.000000
S1806-33-001,-61.520889,-92.617528,-61.520889,-92.617528,0.000000,0.000000
S1806-33-063,-61.306958,-92.858660,-61.306958,-92.858660,0.000000,0.000000
S1806-28-004,-61.280945,-92.826145,-61.280945,-92.826145,0.000000,0.000000
S1806-28-006,-61.280945,-92.826145,-61.280945,-92.826145,0.000000,0.000000
S1806-28-008,-61.280945,-92.826145,-61.280945,-92.826145,0.000000,0.000000
S1806-28-011,-61.280945,-92.826145,-61.280945,-92.826145,0.000000,0.000000
S1806-28-007,-61.270503,-92.869200,-61.270503,-92.869200,0.000000,0.000000
S1806-33-035,-61.057732,-93.138631,-61.057732,-93.138631,0.000000,0.000000
S1806-28-015,-62.336409,-92.998868,-62.336409,-92.998868,0.000000,0.000000
S1806-29-012,96.171779,-5.932829,96.171779,-5.932829,0.000000,0.000000
S1806-20-018,90.326305,-7.989111,90.326305,-7.989111,0.000000,0.000000
S1806-20-066,90.032809,-8.088681,90.032809,-8.088681,0.000000,0.000000
S1806-20-065,89.874978,-8.142563,89.874978,-8.142563,0.000000,0.000000
S1806-20-005,89.614887,-8.231285,89.614887,-8.231285,0.000000,0.000000
S1806-20-012,89.623801,-8.228251,89.623801,-8.228251,0.000000,0.000000
S1806-20-019,89.632845,-8.225173,89.632845,-8.225173,0.000000,0.000000
S1806-20-047,89.655107,-8.217594,89.655107,-8.217594,0.000000,0.000000
S1806-20-013,89.665115,-8.219534,89.665115,-8.219534,0.000000,0.000000
S1806-20-015,89.665115,-8.219534,89.665115,-8.219534,0.000000,0.000000
S1806-20-001,89.695538,-8.203809,89.695538,-8.203809,0.000000,0.000000
S1806-20-010,89.713058,-8.225182,89.713058,-8.225182,0.000000,0.000000
S1806-20-039,89.713058,-8.225182,89.713058,-8.225182,0.000000,0.000000
S1806-20-046,89.716730,-8.215490,89.716730,-8.215490,0.000000,0.000000
S1806-20-034,89.718293,-8.212164,89.718293,-8.212164,0.000000,0.000000
S1806-20-007,89.714080,-8.214463,89.714080,-8.214463,0.000000,0.000000
S1806-20-008,89.714080,-8.214463,89.714080,-8.214463,0.000000,0.000000
S1806-29-011,89.720806,-8.206821,89.720806,-8.206821,0.000000,0.000000
S1806-29-004,89.675211,-8.210710,89.675211,-8.210710,0.000000,0.000000
S1806-29-013,89.616115,-8.230828,89.616115,-8.230828,0.000000,0.000000
S1806-29-009,89.639211,-8.222966,89.639211,-8.222966,0.000000,0.000000
S1806-29-014,90.407015,-7.960880,90.407015,-7.960880,0.000000,0.000000
S1806-21-018,90.533514,-7.913518,90.533514,-7.913518,0.000000,0.000000
S1806-21-014,90.538312,-7.911859,90.538312,-7.911859,0.000000,0.000000
S1806-21-013,90.550148,-7.913083,90.550148,-7.913083,0.000000,0.000000
S1806-21-025,90.550148,-7.913083,90.550148,-7.913083,0.000000,0.000000
S1806-21-021,-40.109057,79.107868,-40.109057,79.107868,0.000000,0.000000
S1806-21-016,86.911678,-12.284786,86.911678,-12.284786,0.000000,0.000000
S1806-21-012,-35.988114,77.377802,-35.988114,77.377802,0.000000,0.000000
S1806-21-003,-35.993064,77.382225,-35.993064,77.382225,0.000000,0.000000
S1806-21-010,-35.993613,77.378577,-35.993613,77.378577,0.000000,0.000000
S1806-21-026,-35.996337,77.381011,-35.996337,77.381011,0.000000,0.000000
S1806-17-006,-66.462225,-90.349780,-66.462225,-90.349780,0.000000,0.000000
S1806-17-015,-66.462225,-90.349780,-66.462225,-90.349780,0.000000,0.000000
S1806-17-008,-66.562442,-90.343977,-66.562442,-90.343977,0.000000,0.000000
S1806-20-043,-66.562568,-90.345016,-66.562568,-90.345016,0.000000,0.000000
S1806-17-043,-66.763662,-90.327620,-66.763662,-90.327620,0.000000,0.000000
S1806-17-044,-66.763662,-90.327620,-66.763662,-90.327620,0.000000,0.000000
S1806-20-003,-66.760480,-90.339884,-66.760480,-90.339884,0.000000,0.000000
S1806-17-032,-66.863975,-90.319107,-66.863975,-90.319107,0.000000,0.000000
S1806-17-011,-66.863682,-90.316712,-66.863682,-90.316712,0.000000,0.000000
S1806-17-023,83.658234,-13.777639,83.658234,-13.777639,0.000000,0.000000
S1806-17-047,83.641950,-13.779684,83.641950,-13.779684,0.000000,0.000000
S1806-17-027,83.644991,-13.779302,83.644991,-13.779302,0.000000,0.000000
S1806-17-028,83.643575,-13.779480,83.643575,-13.779480,0.000000,0.000000
S1806-17-036,83.639590,-13.779981,83.639590,-13.779981,0.000000,0.000000
S1806-17-042,83.677090,-13.775272,83.677090,-13.775272,0.000000,0.000000
S1806-17-029,83.677509,-13.775219,83.677509,-13.775219,0.000000,0.000000
S1806-17-014,83.725082,-13.769243,83.725082,-13.769243,0.000000,0.000000
S1806-17-021,83.725773,-13.769156,83.725773,-13.769156,0.000000,0.000000
S1806-17-001,83.722252,-13.769599,83.722252,-13.769599,0.000000,0.000000
S1806-17-035,83.900312,-13.754111,83.900312,-13.754111,0.000000,0.000000
S1806-20-059,83.521824,-13.799537,83.521824,-13.799537,0.000000,0.000000
S1806-20-054,83.521054,-13.799927,83.521054,-13.799927,0.000000,0.000000
S1806-20-062,83.407165,-13.830521,83.407165,-13.830521,0.000000,0.000000
S1806-20-017,83.411587,-13.829323,83.411587,-13.829323,0.000000,0.000000
S1806-17-013,83.287025,-13.869555,83.287025,-13.869555,0.000000,0.000000
S1806-17-020,83.287025,-13.869555,83.287025,-13.869555,0.000000,0.000000
S1806-18-001,82.982483,-13.947105,82.982483,-13.947105,0.000000,0.000000
S1806-20-072,82.959614,-13.950453,82.959614,-13.950453,0.000000,0.000000
S1806-20-056,82.966003,-13.948740,82.966003,-13.948740,0.000000,0.000000
S1806-20-071,82.964613,-13.949112,82.964613,-13.949112,0.000000,0.000000
S1806-17-041,82.700349,-14.019799,82.700349,-14.019799,0.000000,0.000000
S1806-17-017,82.690266,-14.027827,82.690266,-14.027827,0.000000,0.000000
S1806-17-019,82.690266,-14.027827,82.690266,-14.027827,0.000000,0.000000
S1806-18-007,82.603563,-14.045663,82.603563,-14.045663,0.000000,0.000000
S1806-18-005,82.605681,-14.050427,82.605681,-14.050427,0.000000,0.000000
S1806-18-009,82.605681,-14.050427,82.605681,-14.050427,0.000000,0.000000
S1806-18-004,82.620259,-14.041207,82.620259,-14.041207,0.000000,0.000000
S1806-18-003,82.636553,-14.042183,82.636553,-14.042183,0.000000,0.000000
S1806-18-006,82.636553,-14.042183,82.636553,-14.042183,0.000000,0.000000
S1806-17-040,82.661131,-14.035613,82.661131,-14.035613,0.000000,0.000000
S1806-18-008,82.661131,-14.035613,82.661131,-14.035613,0.000000,0.000000
S1806-17-025,82.799059,-13.993390,82.799059,-13.993390,0.000000,0.000000
S1806-17-022,82.823291,-13.986908,82.823291,-13.986908,0.000000,0.000000
S1806-17-039,82.867772,-13.975009,82.867772,-13.975009,0.000000,0.000000
S1806-17-037,83.127440,-13.910857,83.127440,-13.910857,0.000000,0.000000
S1806-17-038,83.127440,-13.910857,83.127440,-13.910857,0.000000,0.000000
S1806-20-067,83.132702,-13.904118,83.132702,-13.904118,0.000000,0.000000
S1806-20-057,-67.006537,-90.374263,-67.006537,-90.374263,0.000000,0.000000
S1806-20-004,83.220014,-13.833408,83.220014,-13.833408,0.000000,0.000000
S1806-20-063,82.969398,-13.901617,82.969398,-13.901617,0.000000,0.000000
S1806-20-022,82.336188,-14.087105,82.336188,-14.087105,0.000000,0.000000
S1806-20-050,82.336188,-14.087105,82.336188,-14.087105,0.000000,0.000000
S1806-20-052,82.336188,-14.087105,82.336188,-14.087105,0.000000,0.000000
S1806-20-053,82.336188,-14.087105,82.336188,-14.087105,0.000000,0.000000
S1806-20-024,82.339467,-14.086228,82.339467,-14.086228,0.000000,0.000000
S1806-20-033,82.339467,-14.086228,82.339467,-14.086228,0.000000,0.000000
S1806-20-035,82.339467,-14.086228,82.339467,-14.086228,0.000000,0.000000
S1806-20-058,82.339467,-14.086228,82.339467,-14.086228,0.000000,0.000000
S1806-20-025,82.384292,-14.074242,82.384292,-14.074242,0.000000,0.000000
S1806-20-038,82.384292,-14.074242,82.384292,-14.074242,0.000000,0.000000
S1806-20-040,82.384292,-14.074242,82.384292,-14.074242,0.000000,0.000000
S1806-20-064,82.384292,-14.074242,82.384292,-14.074242,0.000000,0.000000
S1806-20-049,82.409675,-14.051470,82.409675,-14.051470,0.000000,0.000000
S1806-20-029,82.472966,-14.039881,82.472966,-14.039881,0.000000,0.000000
S1806-20-037,82.472966,-14.039881,82.472966,-14.039881,0.000000,0.000000
S1806-20-021,82.509143,-14.035537,82.509143,-14.035537,0.000000,0.000000
S1806-20-051,82.509143,-14.035537,82.509143,-14.035537,0.000000,0.000000
S1806-20-061,82.509143,-14.035537,82.509143,-14.035537,0.000000,0.000000
S1806-20-028,82.574383,-14.012762,82.574383,-14.012762,0.000000,0.000000
S1806-20-030,82.574383,-14.012762,82.574383,-14.012762,0.000000,0.000000
S1806-20-036,82.668316,-13.992960,82.668316,-13.992960,0.000000,0.000000
S1806-20-055,82.668316,-13.992960,82.668316,-13.992960,0.000000,0.000000
S1806-20-068,82.668316,-13.992960,82.668316,-13.992960,0.000000,0.000000
S1806-20-023,82.700978,-13.994861,82.700978,-13.994861,0.000000,0.000000
S1806-20-031,82.700978,-13.994861,82.700978,-13.994861,0.000000,0.000000
S1806-20-032,82.700978,-13.994861,82.700978,-13.994861,0.000000,0.000000
S1806-20-041,82.700978,-13.994861,82.700978,-13.994861,0.000000,0.000000
S1806-20-060,82.700978,-13.994861,82.700978,-13.994861,0.000000,0.000000
S1806-20-070,82.958234,-13.904615,82.958234,-13.904615,0.000000,0.000000
S1806-16-011,83.013951,-17.565522,83.013951,-17.565522,0.000000,0.000000
S1806-17-046,-67.878896,-90.287037,-67.878896,-90.287037,0.000000,0.000000
S1806-09-005,-68.025009,-90.217883,-68.025009,-90.217883,0.000000,0.000000
S1806-09-017,-68.036055,-90.203733,-68.036055,-90.203733,0.000000,0.000000
S1806-16-012,-68.025926,-90.131677,-68.025926,-90.131677,0.000000,0.000000
S1806-09-012,-68.029385,-90.158524,-68.029385,-90.158524,0.000000,0.000000
S1806-16-007,-68.030722,-90.168905,-68.030722,-90.168905,0.000000,0.000000
S1806-16-003,-68.029494,-90.218076,-68.029494,-90.218076,0.000000,0.000000
S1806-09-008,-67.994020,-90.261352,-67.994020,-90.261352,0.000000,0.000000
S1806-17-045,-25.686454,73.414818,-25.686454,73.414818,0.000000,0.000000
S1806-08-021,79.411088,-20.494451,79.411088,-20.494451,0.000000,0.000000
S1806-08-026,79.411088,-20.494451,79.411088,-20.494451,0.000000,0.000000
S1806-08-012,77.706603,-23.002653,77.706603,-23.002653,0.000000,0.000000
S1806-08-017,-17.657594,68.703127,-17.657594,68.703127,0.000000,0.000000
S1806-08-009,77.112612,-23.867976,77.112612,-23.867976,0.000000,0.000000
S1806-08-010,77.112612,-23.867976,77.112612,-23.867976,0.000000,0.000000
S1806-08-018,77.112612,-23.867976,77.112612,-23.867976,0.000000,0.000000
S1806-08-020,76.762757,-24.343069,76.762757,-24.343069,0.000000,0.000000
S1806-05-057,-69.722607,-89.925485,-69.722607,-89.925485,0.000000,0.000000
S1806-05-123,-69.721268,-89.927144,-69.721268,-89.927144,0.000000,0.000000
S1806-05-053,-69.724441,-89.924278,-69.724441,-89.924278,0.000000,0.000000
S1806-05-156,-69.724441,-89.924278,-69.724441,-89.924278,0.000000,0.000000
S1806-05-118,-69.716961,-89.932473,-69.716961,-89.932473,0.000000,0.000000
S1806-05-050,-69.719842,-89.931025,-69.719842,-89.931025,0.000000,0.000000
S1806-05-082,-69.719842,-89.931025,-69.719842,-89.931025,0.000000,0.000000
S1806-08-002,-69.719842,-89.931025,-69.719842,-89.931025,0.000000,0.000000
S1806-05-226,-69.711522,-89.940253,-69.711522,-89.940253,0.000000,0.000000
S1806-08-019,-69.711522,-89.940253,-69.711522,-89.940253,0.000000,0.000000
S1806-05-137,-69.699181,-89.954443,-69.699181,-89.954443,0.000000,0.000000
S1806-08-024,-69.689973,-89.965818,-69.689973,-89.965818,0.000000,0.000000
S1806-05-163,-69.685261,-89.971640,-69.685261,-89.971640,0.000000,0.000000
S1806-05-178,-14.946784,67.563268,-14.946784,67.563268,0.000000,0.000000
S1806-05-200,-14.946784,67.563268,-14.946784,67.563268,0.000000,0.000000
S1806-05-201,-14.946784,67.563268,-14.946784,67.563268,0.000000,0.000000
S1806-05-204,-14.946784,67.563268,-14.946784,67.563268,0.000000,0.000000
S1806-05-220,-14.946784,67.563268,-14.946784,67.563268,0.000000,0.000000
S1806-05-194,-14.987360,67.580064,-14.987360,67.580064,0.000000,0.000000
S1806-05-195,-14.972147,67.578209,-14.972147,67.578209,0.000000,0.000000
S1806-05-225,-14.972147,67.578209,-14.972147,67.578209,0.000000,0.000000
S1806-05-233,-14.972147,67.578209,-14.972147,67.578209,0.000000,0.000000
S1806-05-198,-15.005511,67.603475,-15.005511,67.603475,0.000000,0.000000
S1806-05-135,-14.593250,67.560166,-14.593250,67.560166,0.000000,0.000000
S1806-05-144,-14.593250,67.560166,-14.593250,67.560166,0.000000,0.000000
S1806-05-149,-14.593250,67.560166,-14.593250,67.560166,0.000000,0.000000
S1806-05-150,-14.593250,67.560166,-14.593250,67.560166,0.000000,0.000000
S1806-05-219,-14.111822,67.483046,-14.111822,67.483046,0.000000,0.000000
S1806-03-006,-10.460396,66.932545,-10.460396,66.932545,0.000000,0.000000
S1906-34-014,-10.007724,66.273643,-10.007724,66.273643,0.000000,0.000000
S1906-34-019,-10.009712,66.276458,-10.009712,66.276458,0.000000,0.000000
S1906-34-015,-10.023807,66.296413,-10.023807,66.296413,0.000000,0.000000
S1906-33-006,-10.019811,66.287439,-10.019811,66.287439,0.000000,0.000000
S1906-33-010,-9.492690,65.512904,-9.492690,65.512904,0.000000,0.000000
S1906-34-021,-9.448711,65.448235,-9.448711,65.448235,0.000000,0.000000
S1906-34-022,-9.354176,65.309138,-9.354176,65.309138,0.000000,0.000000
S1906-34-010,-8.174375,63.567129,-8.174375,63.567129,0.000000,0.000000
S1906-34-004,-8.152198,63.534254,-8.152198,63.534254,0.000000,0.000000
S1906-34-002,-8.150658,63.531971,-8.150658,63.531971,0.000000,0.000000
S1906-34-012,-8.150987,63.532458,-8.150987,63.532458,0.000000,0.000000
S1906-34-018,-8.188896,63.588648,-8.188896,63.588648,0.000000,0.000000
S1906-26-014,-8.079742,63.426640,-8.079742,63.426640,0.000000,0.000000
S1906-26-005,-8.084430,63.433601,-8.084430,63.433601,0.000000,0.000000
S1906-26-015,-8.085465,63.435139,-8.085465,63.435139,0.000000,0.000000
S1906-34-003,-8.097667,63.453258,-8.097667,63.453258,0.000000,0.000000
S1906-26-009,-8.054429,63.389073,-8.054429,63.389073,0.000000,0.000000
S1906-26-013,-8.070447,63.412875,-8.070447,63.412875,0.000000,0.000000
S1906-26-008,-8.071173,63.423885,-8.071173,63.423885,0.000000,0.000000
S1906-27-002,-8.071173,63.423885,-8.071173,63.423885,0.000000,0.000000
S1906-34-001,-8.138714,63.514169,-8.138714,63.514169,0.000000,0.000000
S1906-27-016,-8.158321,63.543263,-8.158321,63.543263,0.000000,0.000000
S1906-27-011,-8.246149,63.673554,-8.246149,63.673554,0.000000,0.000000
S1906-34-006,-8.308518,63.766050,-8.308518,63.766050,0.000000,0.000000
S1906-27-012,-8.311420,63.770334,-8.311420,63.770334,0.000000,0.000000
S1906-27-006,-8.339327,63.831487,-8.339327,63.831487,0.000000,0.000000
S1906-34-017,-8.339327,63.831487,-8.339327,63.831487,0.000000,0.000000
S1906-34-020,-8.339327,63.831487,-8.339327,63.831487,0.000000,0.000000
S1906-34-007,-8.390915,63.888062,-8.390915,63.888062,0.000000,0.000000
S1906-27-010,-8.426704,63.950912,-8.426704,63.950912,0.000000,0.000000
S1906-34-013,-8.426704,63.950912,-8.426704,63.950912,0.000000,0.000000
S1906-27-007,-8.655685,64.279639,-8.655685,64.279639,0.000000,0.000000
S1906-27-005,-8.724958,64.411747,-8.724958,64.411747,0.000000,0.000000
S1906-27-008,-8.724958,64.411747,-8.724958,64.411747,0.000000,0.000000
S1906-27-014,-8.724958,64.411747,-8.724958,64.411747,0.000000,0.000000
S1906-34-008,-8.724958,64.411747,-8.724958,64.411747,0.000000,0.000000
S1906-28-023,-8.723327,64.380063,-8.723327,64.380063,0.000000,0.000000
S1906-28-018,-8.725156,64.382735,-8.725156,64.382735,0.000000,0.000000
S1906-34-009,-9.024675,64.823889,-9.024675,64.823889,0.000000,0.000000
S1906-34-016,-9.156639,65.018290,-9.156639,65.018290,0.000000,0.000000
S1806-03-017,-10.559091,66.948832,-10.559091,66.948832,0.000000,0.000000
S1806-03-011,-10.492213,66.940757,-10.492213,66.940757,0.000000,0.000000
S1806-03-027,-10.493696,66.940968,-10.493696,66.940968,0.000000,0.000000
S1806-03-007,-10.489981,66.941260,-10.489981,66.941260,0.000000,0.000000
S1806-03-012,-10.489981,66.941260,-10.489981,66.941260,0.000000,0.000000
S1806-03-013,-10.489674,66.942031,-10.489674,66.942031,0.000000,0.000000
S1806-03-025,-10.489674,66.942031,-10.489674,66.942031,0.000000,0.000000
S1806-03-035,-10.489674,66.942031,-10.489674,66.942031,0.000000,0.000000
S1806-03-018,-10.496870,66.943858,-10.496870,66.943858,0.000000,0.000000
S1806-03-028,-10.496870,66.943858,-10.496870,66.943858,0.000000,0.000000
S1806-03-036,-10.496870,66.943858,-10.496870,66.943858,0.000000,0.000000
S1806-03-039,-10.496870,66.943858,-10.496870,66.943858,0.000000,0.000000
S1806-03-034,-10.535919,66.946920,-10.535919,66.946920,0.000000,0.000000
S1806-03-005,-10.532435,66.948865,-10.532435,66.948865,0.000000,0.000000
S1806-03-024,-10.532435,66.948865,-10.532435,66.948865,0.000000,0.000000
S1806-03-029,-10.532435,66.948865,-10.532435,66.948865,0.000000,0.000000
S1806-03-037,-10.532435,66.948865,-10.532435,66.948865,0.000000,0.000000
S1806-03-016,-10.601725,66.956165,-10.601725,66.956165,0.000000,0.000000
S1806-03-010,-10.799196,66.986763,-10.799196,66.986763,0.000000,0.000000
S1806-03-003,-10.853450,66.996167,-10.853450,66.996167,0.000000,0.000000
S1806-03-019,-10.853450,66.996167,-10.853450,66.996167,0.000000,0.000000
S1806-03-009,-10.892054,67.001240,-10.892054,67.001240,0.000000,0.000000
S1806-03-008,-11.002684,67.018681,-11.002684,67.018681,0.000000,0.000000
S1806-03-014,-10.998097,67.018868,-10.998097,67.018868,0.000000,0.000000
S1806-03-015,-10.998097,67.018868,-10.998097,67.018868,0.000000,0.000000
S1806-11-001,-11.098076,67.031761,-11.098076,67.031761,0.000000,0.000000
S1806-02-003,-10.928188,67.017569,-10.928188,67.017569,0.000000,0.000000
S1907-31-002,-10.291084,66.642025,-10.291084,66.642025,0.000000,0.000000
S1907-31-004,-10.297411,66.650925,-10.297411,66.650925,0.000000,0.000000
S1807-06-001,-10.316331,66.653664,-10.316331,66.653664,0.000000,0.000000
S1807-06-002,-10.347629,66.658189,-10.347629,66.658189,0.000000,0.000000
S1906-36-002,-10.375049,66.662152,-10.375049,66.662152,0.000000,0.000000
S1906-36-001,-10.440556,66.671611,-10.440556,66.671611,0.000000,0.000000
S1806-01-003,-10.460469,66.674484,-10.460469,66.674484,0.000000,0.000000
S1806-01-002,-10.505269,66.680939,-10.505269,66.680939,0.000000,0.000000
S1806-02-007,-10.544581,66.682420,-10.544581,66.682420,0.000000,0.000000
S1806-02-006,-10.546794,66.685520,-10.546794,66.685520,0.000000,0.000000
S1806-02-002,-10.758714,66.983059,-10.758714,66.983059,0.000000,0.000000
S1806-02-009,-10.874852,67.009918,-10.874852,67.009918,0.000000,0.000000
S1806-02-005,-10.909386,67.014856,-10.909386,67.014856,0.000000,0.000000
S1806-02-010,-11.035481,67.032817,-11.035481,67.032817,0.000000,0.000000
S1806-02-008,-11.079096,67.026551,-11.079096,67.026551,0.000000,0.000000
S1806-03-021,-11.161555,67.050692,-11.161555,67.050692,0.000000,0.000000
S1806-03-020,-11.275568,67.066796,-11.275568,67.066796,0.000000,0.000000
S1806-03-001,-11.337928,67.075594,-11.337928,67.075594,0.000000,0.000000
S1806-03-023,-11.447775,67.091900,-11.447775,67.091900,0.000000,0.000000
S1806-10-003,-11.447775,67.091900,-11.447775,67.091900,0.000000,0.000000
S1806-10-001,-11.558814,67.106579,-11.558814,67.106579,0.000000,0.000000
S1806-09-003,-11.779761,67.138172,-11.779761,67.138172,0.000000,0.000000
S1806-09-004,-12.107464,67.187461,-12.107464,67.187461,0.000000,0.000000
S1806-09-010,-12.355060,67.224643,-12.355060,67.224643,0.000000,0.000000
S1806-09-014,-13.382848,67.378723,-13.382848,67.378723,0.000000,0.000000
S1806-04-067,-13.549841,67.403699,-13.549841,67.403699,0.000000,0.000000
S1806-04-229,-13.721434,67.429304,-13.721434,67.429304,0.000000,0.000000
S1806-04-048,-13.873590,67.451953,-13.873590,67.451953,0.000000,0.000000
S1806-09-002,-14.044062,67.477266,-14.044062,67.477266,0.000000,0.000000
S1806-08-014,-14.002897,67.466792,-14.002897,67.466792,0.000000,0.000000
S1806-09-011,-13.999869,67.462805,-13.999869,67.462805,0.000000,0.000000
S1806-08-025,-13.987582,67.446621,-13.987582,67.446621,0.000000,0.000000
S1806-09-015,-13.997928,67.460248,-13.997928,67.460248,0.000000,0.000000
S1806-08-007,-14.013713,67.476430,-14.013713,67.476430,0.000000,0.000000
S1806-08-005,-14.017451,67.477671,-14.017451,67.477671,0.000000,0.000000
S1806-09-007,-14.017451,67.477671,-14.017451,67.477671,0.000000,0.000000
S1806-09-018,-14.047515,67.477618,-14.047515,67.477618,0.000000,0.000000
S1806-09-013,-14.058042,67.478287,-14.058042,67.478287,0.000000,0.000000
S1806-05-128,-14.175742,67.497615,-14.175742,67.497615,0.000000,0.000000
S1806-05-130,-14.175742,67.497615,-14.175742,67.497615,0.000000,0.000000
S1806-05-142,-14.619570,67.560524,-14.619570,67.560524,0.000000,0.000000
S1806-08-008,-15.015975,67.616975,-15.015975,67.616975,0.000000,0.000000
S1806-05-125,-15.173356,67.639903,-15.173356,67.639903,0.000000,0.000000
S1806-05-203,-15.173356,67.639903,-15.173356,67.639903,0.000000,0.000000
S1806-05-003,-14.760076,67.532603,-14.760076,67.532603,0.000000,0.000000
S1806-05-005,-14.760076,67.532603,-14.760076,67.532603,0.000000,0.000000
S1806-05-236,-14.760076,67.532603,-14.760076,67.532603,0.000000,0.000000
S1806-05-009,-14.377123,67.502148,-14.377123,67.502148,0.000000,0.000000
S1806-05-010,-14.377123,67.502148,-14.377123,67.502148,0.000000,0.000000
S1806-05-012,-14.377123,67.502148,-14.377123,67.502148,0.000000,0.000000
S1806-05-013,-14.377123,67.502148,-14.377123,67.502148,0.000000,0.000000
S1806-05-038,-14.377123,67.502148,-14.377123,67.502148,0.000000,0.000000
S1806-05-121,-14.377123,67.502148,-14.377123,67.502148,0.000000,0.000000
S1806-05-018,-14.249452,67.488619,-14.249452,67.488619,0.000000,0.000000
S1806-05-019,-14.249452,67.488619,-14.249452,67.488619,0.000000,0.000000
S1806-05-048,-14.249452,67.488619,-14.249452,67.488619,0.000000,0.000000
S1806-05-129,-14.249452,67.488619,-14.249452,67.488619,0.000000,0.000000
S1806-05-138,-14.249452,67.488619,-14.249452,67.488619,0.000000,0.000000
S1806-05-152,-14.249452,67.488619,-14.249452,67.488619,0.000000,0.000000
S1806-05-231,-14.249452,67.488619,-14.249452,67.488619,0.000000,0.000000
S1806-05-033,-14.156646,67.462294,-14.156646,67.462294,0.000000,0.000000
S1806-05-037,-14.156646,67.462294,-14.156646,67.462294,0.000000,0.000000
S1806-05-046,-14.156646,67.462294,-14.156646,67.462294,0.000000,0.000000
S1806-05-021,-14.169901,67.474536,-14.169901,67.474536,0.000000,0.000000
S1806-05-023,-13.991855,67.459277,-13.991855,67.459277,0.000000,0.000000
S1806-05-024,-13.991855,67.459277,-13.991855,67.459277,0.000000,0.000000
S1806-05-025,-13.991855,67.459277,-13.991855,67.459277,0.000000,0.000000
S1806-05-026,-13.991855,67.459277,-13.991855,67.459277,0.000000,0.000000
S1806-05-061,-13.991855,67.459277,-13.991855,67.459277,0.000000,0.000000
S1806-05-083,-13.991855,67.459277,-13.991855,67.459277,0.000000,0.000000
S1806-05-095,-13.991855,67.459277,-13.991855,67.459277,0.000000,0.000000
S1806-06-001,-13.981646,67.430818,-13.981646,67.430818,0.000000,0.000000
S1806-06-016,-13.981646,67.430818,-13.981646,67.430818,0.000000,0.000000
S1806-06-021,-13.981646,67.430818,-13.981646,67.430818,0.000000,0.000000
S1806-06-010,-14.001220,67.438565,-14.001220,67.438565,0.000000,0.000000
S1806-05-132,-13.872559,67.268164,-13.872559,67.268164,0.000000,0.000000
S1806-06-018,-13.750741,67.115892,-13.750741,67.115892,0.000000,0.000000
S1806-06-022,-13.750741,67.115892,-13.750741,67.115892,0.000000,0.000000
S1806-06-019,-13.760286,67.119467,-13.760286,67.119467,0.000000,0.000000
S1806-06-015,-13.708477,67.059862,-13.708477,67.059862,0.000000,0.000000
S1806-06-020,-13.708477,67.059862,-13.708477,67.059862,0.000000,0.000000
S1806-06-012,-13.670387,67.009357,-13.670387,67.009357,0.000000,0.000000
S1806-06-014,-13.670387,67.009357,-13.670387,67.009357,0.000000,0.000000
S1806-06-009,-13.642963,66.968804,-13.642963,66.968804,0.000000,0.000000
S1806-06-007,-13.638848,66.972419,-13.638848,66.972419,0.000000,0.000000
S1806-06-008,-13.638848,66.972419,-13.638848,66.972419,0.000000,0.000000
S1806-07-010,-13.601199,66.908494,-13.601199,66.908494,0.000000,0.000000
S1806-07-007,-13.561328,66.855580,-13.561328,66.855580,0.000000,0.000000
S1806-07-012,-13.562419,66.857031,-13.562419,66.857031,0.000000,0.000000
S1806-07-002,-13.559500,66.862245,-13.559500,66.862245,0.000000,0.000000
S1806-07-005,-13.559500,66.862245,-13.559500,66.862245,0.000000,0.000000
S1806-07-003,-13.565112,66.869697,-13.565112,66.869697,0.000000,0.000000
S1806-07-004,-13.565112,66.869697,-13.565112,66.869697,0.000000,0.000000
S1806-07-001,-13.571564,66.887336,-13.571564,66.887336,0.000000,0.000000
S1806-07-008,-13.571564,66.887336,-13.571564,66.887336,0.000000,0.000000
S1806-07-009,-13.571564,66.887336,-13.571564,66.887336,0.000000,0.000000
S1806-06-002,-13.912748,67.321409,-13.912748,67.321409,0.000000,0.000000
S1806-05-058,-13.914874,67.324216,-13.914874,67.324216,0.000000,0.000000
S1806-05-112,-14.045973,67.460446,-14.045973,67.460446,0.000000,0.000000
S1806-05-022,-14.093059,67.466633,-14.093059,67.466633,0.000000,0.000000
S1806-05-080,-14.093059,67.466633,-14.093059,67.466633,0.000000,0.000000
S1806-05-117,-14.196488,67.478378,-14.196488,67.478378,0.000000,0.000000
S1806-05-145,-14.196488,67.478378,-14.196488,67.478378,0.000000,0.000000
S1806-05-052,-14.290236,67.488143,-14.290236,67.488143,0.000000,0.000000
S1806-05-039,-14.304700,67.489777,-14.304700,67.489777,0.000000,0.000000
S1806-05-215,-14.338831,67.490453,-14.338831,67.490453,0.000000,0.000000
S1806-05-105,-14.341466,67.493905,-14.341466,67.493905,0.000000,0.000000
S1806-05-015,-14.374434,67.493939,-14.374434,67.493939,0.000000,0.000000
S1806-05-073,-14.422411,67.502984,-14.422411,67.502984,0.000000,0.000000
S1806-05-043,-14.463774,67.507600,-14.463774,67.507600,0.000000,0.000000
S1806-05-008,-14.526192,67.514563,-14.526192,67.514563,0.000000,0.000000
S1806-05-007,-14.548800,67.509698,-14.548800,67.509698,0.000000,0.000000
S1806-05-206,-14.548800,67.509698,-14.548800,67.509698,0.000000,0.000000
S1806-05-032,-14.562518,67.518614,-14.562518,67.518614,0.000000,0.000000
S1806-05-100,-14.675936,67.531238,-14.675936,67.531238,0.000000,0.000000
S1806-05-002,-14.835108,67.548931,-14.835108,67.548931,0.000000,0.000000
S1806-04-031,-70.896619,-89.124677,-70.896619,-89.124677,0.000000,0.000000
S1806-04-053,-70.896619,-89.124677,-70.896619,-89.124677,0.000000,0.000000
S1806-04-056,-70.896619,-89.124677,-70.896619,-89.124677,0.000000,0.000000
S1806-04-052,-70.901823,-89.128311,-70.901823,-89.128311,0.000000,0.000000
S1806-04-054,-70.901823,-89.128311,-70.901823,-89.128311,0.000000,0.000000
S1806-04-055,-70.901823,-89.128311,-70.901823,-89.128311,0.000000,0.000000
S1806-04-227,-70.901823,-89.128311,-70.901823,-89.128311,0.000000,0.000000
S1806-04-013,-70.896271,-89.154685,-70.896271,-89.154685,0.000000,0.000000
S1806-04-049,-70.896271,-89.154685,-70.896271,-89.154685,0.000000,0.000000
S1806-04-024,-70.888068,-89.163964,-70.888068,-89.163964,0.000000,0.000000
S1806-04-023,-70.887206,-89.166105,-70.887206,-89.166105,0.000000,0.000000
S1806-04-063,-70.887206,-89.166105,-70.887206,-89.166105,0.000000,0.000000
S1806-04-020,-70.876748,-89.179284,-70.876748,-89.179284,0.000000,0.000000
S1806-05-131,-70.876748,-89.179284,-70.876748,-89.179284,0.000000,0.000000
S1806-04-042,-70.905033,-89.102749,-70.905033,-89.102749,0.000000,0.000000
S1806-04-061,-70.905033,-89.102749,-70.905033,-89.102749,0.000000,0.000000
S1806-05-183,-70.905033,-89.102749,-70.905033,-89.102749,0.000000,0.000000
S1806-05-196,-70.905033,-89.102749,-70.905033,-89.102749,0.000000,0.000000
S1806-05-218,-70.905033,-89.102749,-70.905033,-89.102749,0.000000,0.000000
S1806-05-148,-70.891338,-89.137554,-70.891338,-89.137554,0.000000,0.000000
S1806-04-032,-70.919169,-89.117197,-70.919169,-89.117197,0.000000,0.000000
S1806-04-014,-70.924181,-89.119375,-70.924181,-89.119375,0.000000,0.000000
S1806-04-066,-70.924181,-89.119375,-70.924181,-89.119375,0.000000,0.000000
S1806-04-068,-70.922617,-89.121352,-70.922617,-89.121352,0.000000,0.000000
S1806-04-228,-70.922617,-89.121352,-70.922617,-89.121352,0.000000,0.000000
S1806-04-035,-70.917711,-89.126485,-70.917711,-89.126485,0.000000,0.000000
S1806-04-016,-70.918861,-89.126097,-70.918861,-89.126097,0.000000,0.000000
S1806-04-065,-70.918861,-89.126097,-70.918861,-89.126097,0.000000,0.000000
S1806-04-012,-70.912667,-89.132856,-70.912667,-89.132856,0.000000,0.000000
S1806-04-043,-70.909232,-89.137197,-70.909232,-89.137197,0.000000,0.000000
S1806-04-026,-70.903962,-89.143856,-70.903962,-89.143856,0.000000,0.000000
S1806-04-015,-70.907878,-89.141046,-70.907878,-89.141046,0.000000,0.000000
S1806-04-045,-70.907878,-89.141046,-70.907878,-89.141046,0.000000,0.000000
S1806-04-060,-70.907878,-89.141046,-70.907878,-89.141046,0.000000,0.000000
S1806-05-212,-70.879322,-89.174966,-70.879322,-89.174966,0.000000,0.000000
S1806-04-003,-70.927693,-89.117140,-70.927693,-89.117140,0.000000,0.000000
S1806-04-005,-70.927693,-89.117140,-70.927693,-89.117140,0.000000,0.000000
S1806-04-007,-70.927693,-89.117140,-70.927693,-89.117140,0.000000,0.000000
S1806-04-062,-70.927693,-89.117140,-70.927693,-89.117140,0.000000,0.000000
S1806-04-059,-70.911843,-89.133955,-70.911843,-89.133955,0.000000,0.000000
S1806-04-011,-70.909544,-89.136853,-70.909544,-89.136853,0.000000,0.000000
S1806-04-006,-70.910791,-89.136339,-70.910791,-89.136339,0.000000,0.000000
S1806-04-021,-70.910791,-89.136339,-70.910791,-89.136339,0.000000,0.000000
S1806-04-001,-70.907242,-89.140817,-70.907242,-89.140817,0.000000,0.000000
S1806-04-002,-70.907242,-89.140817,-70.907242,-89.140817,0.000000,0.000000
S1806-04-009,-70.897618,-89.145980,-70.897618,-89.145980,0.000000,0.000000
S1806-04-017,-70.897618,-89.145980,-70.897618,-89.145980,0.000000,0.000000
S1906-33-008,-70.855771,-88.892208,-70.855771,-88.892208,0.000000,0.000000
S1906-33-004,-70.856634,-88.866050,-70.856634,-88.866050,0.000000,0.000000
S1906-33-005,-70.856634,-88.866050,-70.856634,-88.866050,0.000000,0.000000
S1906-33-007,-70.858192,-88.876692,-70.858192,-88.876692,0.000000,0.000000
S1906-33-012,-70.858192,-88.876692,-70.858192,-88.876692,0.000000,0.000000
S1806-04-046,-70.888681,-89.052501,-70.888681,-89.052501,0.000000,0.000000
S1806-04-050,-70.888681,-89.052501,-70.888681,-89.052501,0.000000,0.000000
S1806-04-226,-70.888681,-89.052501,-70.888681,-89.052501,0.000000,0.000000
S1806-04-028,-70.891636,-89.072739,-70.891636,-89.072739,0.000000,0.000000
S1806-04-044,-70.891636,-89.072739,-70.891636,-89.072739,0.000000,0.000000
S1806-04-051,-70.891636,-89.072739,-70.891636,-89.072739,0.000000,0.000000
S1806-04-027,-70.891800,-89.106022,-70.891800,-89.106022,0.000000,0.000000
S1806-04-037,-70.891800,-89.106022,-70.891800,-89.106022,0.000000,0.000000
S1806-04-018,-70.898245,-89.154291,-70.898245,-89.154291,0.000000,0.000000
S1806-04-039,-70.898245,-89.154291,-70.898245,-89.154291,0.000000,0.000000
S1806-04-040,-70.898245,-89.154291,-70.898245,-89.154291,0.000000,0.000000
S1806-04-041,-70.898245,-89.154291,-70.898245,-89.154291,0.000000,0.000000
S1806-04-038,-70.879666,-89.174546,-70.879666,-89.174546,0.000000,0.000000
S1806-04-019,-70.881117,-89.175904,-70.881117,-89.175904,0.000000,0.000000
S1806-04-064,-70.881117,-89.175904,-70.881117,-89.175904,0.000000,0.000000
S1806-05-081,-70.881117,-89.175904,-70.881117,-89.175904,0.000000,0.000000
S1806-05-084,-70.881117,-89.175904,-70.881117,-89.175904,0.000000,0.000000
S1806-05-063,-70.838932,-89.226983,-70.838932,-89.226983,0.000000,0.000000
S1806-05-222,-70.838932,-89.226983,-70.838932,-89.226983,0.000000,0.000000
S1806-05-060,-70.815384,-89.260959,-70.815384,-89.260959,0.000000,0.000000
S1806-05-068,-70.815384,-89.260959,-70.815384,-89.260959,0.000000,0.000000
S1806-05-074,-70.815384,-89.260959,-70.815384,-89.260959,0.000000,0.000000
S1806-05-075,-70.815384,-89.260959,-70.815384,-89.260959,0.000000,0.000000
S1806-05-098,-70.815384,-89.260959,-70.815384,-89.260959,0.000000,0.000000
S1806-05-103,-70.815384,-89.260959,-70.815384,-89.260959,0.000000,0.000000
S1806-05-223,-70.790030,-89.107042,-70.790030,-89.107042,0.000000,0.000000
S1806-05-186,-70.794278,-89.104003,-70.794278,-89.104003,0.000000,0.000000
S1806-05-202,-70.794278,-89.104003,-70.794278,-89.104003,0.000000,0.000000
S1806-05-165,-70.804360,-89.108874,-70.804360,-89.108874,0.000000,0.000000
S1806-05-173,-70.804360,-89.108874,-70.804360,-89.108874,0.000000,0.000000
S1806-05-181,-70.804360,-89.108874,-70.804360,-89.108874,0.000000,0.000000
S1806-05-193,-70.804360,-89.108874,-70.804360,-89.108874,0.000000,0.000000
S1806-05-189,-70.793565,-89.131552,-70.793565,-89.131552,0.000000,0.000000
S1806-05-190,-70.801596,-89.122256,-70.801596,-89.122256,0.000000,0.000000
S1806-05-197,-70.801596,-89.122256,-70.801596,-89.122256,0.000000,0.000000
S1806-05-209,-70.801596,-89.122256,-70.801596,-89.122256,0.000000,0.000000
S1806-05-228,-70.793503,-89.131127,-70.793503,-89.131127,0.000000,0.000000
S1806-05-171,-70.805012,-89.145847,-70.805012,-89.145847,0.000000,0.000000
S1806-05-184,-70.805012,-89.145847,-70.805012,-89.145847,0.000000,0.000000
S1806-05-192,-70.805012,-89.145847,-70.805012,-89.145847,0.000000,0.000000
S1806-05-177,-70.804183,-89.172531,-70.804183,-89.172531,0.000000,0.000000
S1806-05-187,-70.804183,-89.172531,-70.804183,-89.172531,0.000000,0.000000
S1806-05-182,-70.800093,-89.176663,-70.800093,-89.176663,0.000000,0.000000
S1806-05-214,-70.809050,-89.206207,-70.809050,-89.206207,0.000000,0.000000
S1806-05-217,-70.809050,-89.206207,-70.809050,-89.206207,0.000000,0.000000
S1806-05-216,-70.822514,-89.241220,-70.822514,-89.241220,0.000000,0.000000
S1806-05-237,-70.822514,-89.241220,-70.822514,-89.241220,0.000000,0.000000
S1806-05-134,-70.823317,-89.246790,-70.823317,-89.246790,0.000000,0.000000
S1806-05-166,-70.823317,-89.246790,-70.823317,-89.246790,0.000000,0.000000
S1806-05-140,-70.828654,-89.242186,-70.828654,-89.242186,0.000000,0.000000
S1806-05-170,-70.828654,-89.242186,-70.828654,-89.242186,0.000000,0.000000
S1806-05-175,-70.828654,-89.242186,-70.828654,-89.242186,0.000000,0.000000
S1806-05-179,-70.828654,-89.242186,-70.828654,-89.242186,0.000000,0.000000
S1806-05-221,-70.813108,-89.258575,-70.813108,-89.258575,0.000000,0.000000
S1806-05-133,-70.802274,-89.272213,-70.802274,-89.272213,0.000000,0.000000
S1806-05-207,-70.789671,-89.288082,-70.789671,-89.288082,0.000000,0.000000
S1806-05-227,-70.769969,-89.312890,-70.769969,-89.312890,0.000000,0.000000
S1806-05-059,-70.761739,-89.324322,-70.761739,-89.324322,0.000000,0.000000
S1806-05-071,-70.761739,-89.324322,-70.761739,-89.324322,0.000000,0.000000
S1806-05-126,-70.720818,-89.375891,-70.720818,-89.375891,0.000000,0.000000
S1806-05-230,-70.720818,-89.375891,-70.720818,-89.375891,0.000000,0.000000
S1806-05-054,-70.680253,-89.423335,-70.680253,-89.423335,0.000000,0.000000
S1806-05-106,-70.680253,-89.423335,-70.680253,-89.423335,0.000000,0.000000
S1806-05-211,-70.680253,-89.423335,-70.680253,-89.423335,0.000000,0.000000
S1806-05-067,-70.680823,-89.427370,-70.680823,-89.427370,0.000000,0.000000
S1806-05-085,-70.680823,-89.427370,-70.680823,-89.427370,0.000000,0.000000
S1806-05-124,-70.680823,-89.427370,-70.680823,-89.427370,0.000000,0.000000
S1806-05-055,-70.615363,-89.512013,-70.615363,-89.512013,0.000000,0.000000
S1806-05-113,-70.615363,-89.512013,-70.615363,-89.512013,0.000000,0.000000
S1806-05-160,-70.615363,-89.512013,-70.615363,-89.512013,0.000000,0.000000
S1806-05-208,-70.615363,-89.512013,-70.615363,-89.512013,0.000000,0.000000
S1806-05-234,-70.615363,-89.512013,-70.615363,-89.512013,0.000000,0.000000
S1806-05-045,-70.516244,-89.636863,-70.516244,-89.636863,0.000000,0.000000
S1806-05-049,-70.516244,-89.636863,-70.516244,-89.636863,0.000000,0.000000
S1806-05-066,-70.516244,-89.636863,-70.516244,-89.636863,0.000000,0.000000
S1806-05-069,-70.516244,-89.636863,-70.516244,-89.636863,0.000000,0.000000
S1806-05-076,-70.516244,-89.636863,-70.516244,-89.636863,0.000000,0.000000
S1806-05-114,-70.450505,-89.715221,-70.450505,-89.715221,0.000000,0.000000
S1806-05-064,-70.422228,-89.754123,-70.422228,-89.754123,0.000000,0.000000
S1806-05-070,-70.422228,-89.754123,-70.422228,-89.754123,0.000000,0.000000
S1806-05-107,-70.422228,-89.754123,-70.422228,-89.754123,0.000000,0.000000
S1806-05-116,-70.422228,-89.754123,-70.422228,-89.754123,0.000000,0.000000
S1806-05-065,-70.361517,-89.823918,-70.361517,-89.823918,0.000000,0.000000
S1806-05-097,-70.315601,-89.887471,-70.315601,-89.887471,0.000000,0.000000
S1806-05-102,-70.315601,-89.887471,-70.315601,-89.887471,0.000000,0.000000
S1806-05-108,-70.315601,-89.887471,-70.315601,-89.887471,0.000000,0.000000
S1806-05-157,-70.315601,-89.887471,-70.315601,-89.887471,0.000000,0.000000
S1806-05-229,-70.315601,-89.887471,-70.315601,-89.887471,0.000000,0.000000
S1806-05-027,-70.258117,-90.269701,-70.258117,-90.269701,0.000000,0.000000
S1806-05-028,-70.427080,-90.726281,-70.427080,-90.726281,0.000000,0.000000
S1806-05-029,-70.427080,-90.726281,-70.427080,-90.726281,0.000000,0.000000
S1806-05-090,-70.426155,-90.727416,-70.426155,-90.727416,0.000000,0.000000
S1806-05-091,-70.426155,-90.727416,-70.426155,-90.727416,0.000000,0.000000
S1806-05-087,-70.420512,-90.733303,-70.420512,-90.733303,0.000000,0.000000
S1806-05-155,-70.418200,-90.736142,-70.418200,-90.736142,0.000000,0.000000
S1806-05-030,-70.416725,-90.737949,-70.416725,-90.737949,0.000000,0.000000
S1806-05-232,-70.416366,-90.738391,-70.416366,-90.738391,0.000000,0.000000
S1806-05-238,74.184314,-27.491312,74.184314,-27.491312,0.000000,0.000000
S1806-05-078,74.183142,-27.496437,74.183142,-27.496437,0.000000,0.000000
S1806-05-168,74.183142,-27.496437,74.183142,-27.496437,0.000000,0.000000
S1806-05-136,74.186215,-27.494409,74.186215,-27.494409,0.000000,0.000000
S1806-05-174,74.186215,-27.494409,74.186215,-27.494409,0.000000,0.000000
S1806-05-047,74.193144,-27.483828,74.193144,-27.483828,0.000000,0.000000
S1806-05-056,74.193803,-27.484250,74.193803,-27.484250,0.000000,0.000000
S1806-05-154,74.193803,-27.484250,74.193803,-27.484250,0.000000,0.000000
S1806-05-035,74.190316,-27.491522,74.190316,-27.491522,0.000000,0.000000
S1806-05-036,74.190316,-27.491522,74.190316,-27.491522,0.000000,0.000000
S1806-05-042,74.190316,-27.491522,74.190316,-27.491522,0.000000,0.000000
S1806-05-044,74.190316,-27.491522,74.190316,-27.491522,0.000000,0.000000
S1806-05-034,74.200557,-27.476500,74.200557,-27.476500,0.000000,0.000000
S1806-05-077,74.200557,-27.476500,74.200557,-27.476500,0.000000,0.000000
S1806-05-210,74.200557,-27.476500,74.200557,-27.476500,0.000000,0.000000
S1806-05-191,74.241724,-27.461251,74.241724,-27.461251,0.000000,0.000000
S1806-05-172,74.261334,-27.458725,74.261334,-27.458725,0.000000,0.000000
S1806-05-224,74.295352,-27.454343,74.295352,-27.454343,0.000000,0.000000
S1806-05-122,74.087847,-27.753087,74.087847,-27.753087,0.000000,0.000000
S1806-05-115,74.089552,-27.757845,74.089552,-27.757845,0.000000,0.000000
S1806-05-213,74.089552,-27.757845,74.089552,-27.757845,0.000000,0.000000
S1806-05-188,74.094710,-27.750203,74.094710,-27.750203,0.000000,0.000000
S1906-32-028,71.699660,-31.133231,71.699660,-31.133231,0.000000,0.000000
S1906-32-007,71.696208,-31.138454,71.696208,-31.138454,0.000000,0.000000
S1906-32-034,71.696208,-31.138454,71.696208,-31.138454,0.000000,0.000000
S1906-32-015,71.703524,-31.137779,71.703524,-31.137779,0.000000,0.000000
S1906-32-031,71.703524,-31.137779,71.703524,-31.137779,0.000000,0.000000
S1906-33-011,-10.330502,63.475258,-10.330502,63.475258,0.000000,0.000000
S1906-33-001,-10.335555,63.482480,-10.335555,63.482480,0.000000,0.000000
S1906-33-009,-10.340339,63.483209,-10.340339,63.483209,0.000000,0.000000
S1906-28-022,-71.529343,-94.521150,-71.529343,-94.521150,0.000000,0.000000
S1906-28-025,-71.529343,-94.521150,-71.529343,-94.521150,0.000000,0.000000
S1906-29-013,-71.526911,-94.540761,-71.526911,-94.540761,0.000000,0.000000
S1906-32-013,-71.535433,-94.619503,-71.535433,-94.619503,0.000000,0.000000
S1906-29-018,-73.011214,-96.211112,-73.011214,-96.211112,0.000000,0.000000
S1906-29-010,62.922265,-39.936246,62.922265,-39.936246,0.000000,0.000000
S1906-30-003,62.188563,-40.627311,62.188563,-40.627311,0.000000,0.000000
S1906-19-021,60.160028,-40.529128,60.160028,-40.529128,0.000000,0.000000
S1905-24-094,59.538529,-41.108663,59.538529,-41.108663,0.000000,0.000000
S1905-24-048,59.540259,-41.108731,59.540259,-41.108731,0.000000,0.000000
S1905-25-005,59.543670,-41.106550,59.543670,-41.106550,0.000000,0.000000
S1905-24-068,58.622148,-41.966883,58.622148,-41.966883,0.000000,0.000000
S1905-24-019,58.623373,-41.965737,58.623373,-41.965737,0.000000,0.000000
S1905-24-037,58.620938,-41.969060,58.620938,-41.969060,0.000000,0.000000
S1905-24-061,58.620938,-41.969060,58.620938,-41.969060,0.000000,0.000000
S1905-23-010,58.623787,-41.962817,58.623787,-41.962817,0.000000,0.000000
S1905-24-014,58.624272,-41.965935,58.624272,-41.965935,0.000000,0.000000
S1905-24-058,58.624272,-41.965935,58.624272,-41.965935,0.000000,0.000000
S1905-24-079,58.632971,-41.956742,58.632971,-41.956742,0.000000,0.000000
S1905-24-016,58.638451,-41.951605,58.638451,-41.951605,0.000000,0.000000
S1905-24-076,58.651147,-41.940746,58.651147,-41.940746,0.000000,0.000000
S1905-24-096,58.651147,-41.940746,58.651147,-41.940746,0.000000,0.000000
S1905-26-030,58.551205,-42.027639,58.551205,-42.027639,0.000000,0.000000
S1905-25-008,58.555742,-42.028985,58.555742,-42.028985,0.000000,0.000000
S1905-25-015,58.559075,-42.025872,58.559075,-42.025872,0.000000,0.000000
S1905-26-043,58.565765,-42.019623,58.565765,-42.019623,0.000000,0.000000
S1905-26-036,58.560228,-42.018072,58.560228,-42.018072,0.000000,0.000000
S1905-26-002,58.563569,-42.022726,58.563569,-42.022726,0.000000,0.000000
S1905-26-006,58.563569,-42.022726,58.563569,-42.022726,0.000000,0.000000
S1905-25-014,58.569118,-42.017533,58.569118,-42.017533,0.000000,0.000000
S1905-26-033,58.569118,-42.017533,58.569118,-42.017533,0.000000,0.000000
S1905-25-012,58.609077,-41.980137,58.609077,-41.980137,0.000000,0.000000
S1905-26-011,58.609077,-41.980137,58.609077,-41.980137,0.000000,0.000000
S1905-26-028,58.630159,-41.959354,58.630159,-41.959354,0.000000,0.000000
S1905-26-003,58.642637,-41.949757,58.642637,-41.949757,0.000000,0.000000
S1905-26-013,58.642637,-41.949757,58.642637,-41.949757,0.000000,0.000000
S1905-26-042,58.642637,-41.949757,58.642637,-41.949757,0.000000,0.000000
S1905-23-001,58.437604,-42.137144,58.437604,-42.137144,0.000000,0.000000
S1905-26-037,58.359100,-42.203255,58.359100,-42.203255,0.000000,0.000000
S1905-23-024,58.336478,-42.225471,58.336478,-42.225471,0.000000,0.000000
S1905-23-002,58.265562,-42.289567,58.265562,-42.289567,0.000000,0.000000
S1905-22-002,57.990135,-42.274221,57.990135,-42.274221,0.000000,0.000000
S1905-22-001,57.997624,-42.279424,57.997624,-42.279424,0.000000,0.000000
S1905-22-005,57.997624,-42.279424,57.997624,-42.279424,0.000000,0.000000
S1905-27-007,57.986460,-42.274007,57.986460,-42.274007,0.000000,0.000000
S1905-22-004,57.992024,-42.274317,57.992024,-42.274317,0.000000,0.000000
S1905-27-006,57.997782,-42.274637,57.997782,-42.274637,0.000000,0.000000
S1905-27-004,57.919437,-42.269818,57.919437,-42.269818,0.000000,0.000000
S1905-26-038,57.925466,-42.270157,57.925466,-42.270157,0.000000,0.000000
S1905-26-040,57.892223,-42.268243,57.892223,-42.268243,0.000000,0.000000
S1905-27-018,57.787753,-42.262221,57.787753,-42.262221,0.000000,0.000000
S1905-27-019,57.635092,-42.253344,57.635092,-42.253344,0.000000,0.000000
S1905-27-012,57.636507,-42.253426,57.636507,-42.253426,0.000000,0.000000
S1905-27-015,57.638018,-42.253514,57.638018,-42.253514,0.000000,0.000000
S1905-27-017,57.644205,-42.253874,57.644205,-42.253874,0.000000,0.000000
S1905-27-014,57.682792,-42.256120,57.682792,-42.256120,0.000000,0.000000
S1905-27-011,57.715430,-42.258019,57.715430,-42.258019,0.000000,0.000000
S1905-27-013,57.717999,-42.258167,57.717999,-42.258167,0.000000,0.000000
S1905-27-016,57.799676,-42.262902,57.799676,-42.262902,0.000000,0.000000
S1905-26-024,57.827677,-42.264520,57.827677,-42.264520,0.000000,0.000000
S1905-23-003,58.298312,-42.265832,58.298312,-42.265832,0.000000,0.000000
S1905-23-025,58.317012,-42.244861,58.317012,-42.244861,0.000000,0.000000
S1905-26-041,58.447431,-42.128050,58.447431,-42.128050,0.000000,0.000000
S1905-26-032,58.573618,-42.011456,58.573618,-42.011456,0.000000,0.000000
S1905-26-014,58.571499,-42.014480,58.571499,-42.014480,0.000000,0.000000
S1905-26-023,58.571499,-42.014480,58.571499,-42.014480,0.000000,0.000000
S1905-26-022,58.578086,-42.007274,58.578086,-42.007274,0.000000,0.000000
S1905-26-009,58.581971,-42.003636,58.581971,-42.003636,0.000000,0.000000
S1905-26-020,58.602721,-41.984405,58.602721,-41.984405,0.000000,0.000000
S1905-26-010,58.648558,-41.941921,58.648558,-41.941921,0.000000,0.000000
S1905-24-073,58.677436,-41.915108,58.677436,-41.915108,0.000000,0.000000
S1905-24-075,58.765581,-41.832979,58.765581,-41.832979,0.000000,0.000000
S1905-24-057,58.793565,-41.807006,58.793565,-41.807006,0.000000,0.000000
S1905-24-069,58.790273,-41.811144,58.790273,-41.811144,0.000000,0.000000
S1905-24-070,58.790273,-41.811144,58.790273,-41.811144,0.000000,0.000000
S1905-24-049,58.800365,-41.800604,58.800365,-41.800604,0.000000,0.000000
S1905-24-039,58.991016,-41.622799,58.991016,-41.622799,0.000000,0.000000
S1905-24-093,59.037606,-41.579350,59.037606,-41.579350,0.000000,0.000000
S1905-24-100,59.071808,-41.547447,59.071808,-41.547447,0.000000,0.000000
S1905-24-015,59.226936,-41.402723,59.226936,-41.402723,0.000000,0.000000
S1905-25-018,59.191066,-41.367248,59.191066,-41.367248,0.000000,0.000000
S1905-25-019,59.191066,-41.367248,59.191066,-41.367248,0.000000,0.000000
S1905-25-017,59.197411,-41.367510,59.197411,-41.367510,0.000000,0.000000
S1905-25-020,59.197411,-41.367510,59.197411,-41.367510,0.000000,0.000000
S1905-25-016,59.223453,-41.363796,59.223453,-41.363796,0.000000,0.000000
S1905-25-021,59.242882,-41.364604,59.242882,-41.364604,0.000000,0.000000
S1905-24-074,59.262950,-41.370230,59.262950,-41.370230,0.000000,0.000000
S1905-24-097,59.262950,-41.370230,59.262950,-41.370230,0.000000,0.000000
S1905-24-005,59.334462,-41.303372,59.334462,-41.303372,0.000000,0.000000
S1905-24-007,59.334462,-41.303372,59.334462,-41.303372,0.000000,0.000000
S1905-24-020,59.435448,-41.207790,59.435448,-41.207790,0.000000,0.000000
S1905-24-009,59.725423,-40.936336,59.725423,-40.936336,0.000000,0.000000
S1905-25-006,59.855709,-40.814303,59.855709,-40.814303,0.000000,0.000000
S1906-19-077,59.941809,-40.733632,59.941809,-40.733632,0.000000,0.000000
S1906-30-026,60.125484,-40.561484,60.125484,-40.561484,0.000000,0.000000
S1906-30-036,62.173030,-40.625849,62.173030,-40.625849,0.000000,0.000000
S1906-30-013,62.427285,-40.406162,62.427285,-40.406162,0.000000,0.000000
S1906-30-027,62.427285,-40.406162,62.427285,-40.406162,0.000000,0.000000
S1906-30-031,62.427285,-40.406162,62.427285,-40.406162,0.000000,0.000000
S1906-30-051,62.439156,-40.392097,62.439156,-40.392097,0.000000,0.000000
S1906-19-074,62.527674,-40.309847,62.527674,-40.309847,0.000000,0.000000
S1906-30-018,62.527674,-40.309847,62.527674,-40.309847,0.000000,0.000000
S1906-30-053,62.621876,-40.219700,62.621876,-40.219700,0.000000,0.000000
S1906-30-014,62.786325,-40.064488,62.786325,-40.064488,0.000000,0.000000
S1906-20-104,62.907944,-39.933839,62.907944,-39.933839,0.000000,0.000000
S1906-20-101,62.911443,-39.933875,62.911443,-39.933875,0.000000,0.000000
S1906-20-100,62.992427,-39.869697,62.992427,-39.869697,0.000000,0.000000
S1906-20-103,63.172225,-39.690429,63.172225,-39.690429,0.000000,0.000000
S1906-29-014,63.180048,-39.690487,63.180048,-39.690487,0.000000,0.000000
S1906-20-098,63.356548,-39.525977,63.356548,-39.525977,0.000000,0.000000
S1906-29-022,63.356548,-39.525977,63.356548,-39.525977,0.000000,0.000000
S1906-20-102,63.461394,-39.420571,63.461394,-39.420571,0.000000,0.000000
S1906-20-097,63.462850,-39.420577,63.462850,-39.420577,0.000000,0.000000
S1906-20-070,63.610036,-39.283674,63.610036,-39.283674,0.000000,0.000000
S1906-29-023,63.735882,-39.163892,63.735882,-39.163892,0.000000,0.000000
S1906-20-010,63.865222,-39.280756,63.865222,-39.280756,0.000000,0.000000
S1906-20-011,63.865222,-39.280756,63.865222,-39.280756,0.000000,0.000000
S1906-20-045,63.865222,-39.280756,63.865222,-39.280756,0.000000,0.000000
S1906-20-031,-73.580516,-96.801882,-73.580516,-96.801882,0.000000,0.000000
S1906-20-069,-10.802750,60.363113,-10.802750,60.363113,0.000000,0.000000
S1906-20-093,-10.802750,60.363113,-10.802750,60.363113,0.000000,0.000000
S1906-20-068,-73.576390,-96.799058,-73.576390,-96.799058,0.000000,0.000000
S1906-20-084,-10.816987,60.368581,-10.816987,60.368581,0.000000,0.000000
S1906-20-014,63.880190,-39.257263,63.880190,-39.257263,0.000000,0.000000
S1906-29-012,62.698750,-39.121372,62.698750,-39.121372,0.000000,0.000000
S1906-29-005,61.907522,-39.039419,61.907522,-39.039419,0.000000,0.000000
S1906-21-012,54.650222,-38.269724,54.650222,-38.269724,0.000000,0.000000
S1906-21-011,54.663508,-38.270568,54.663508,-38.270568,0.000000,0.000000
S1906-28-017,52.137529,-37.995060,52.137529,-37.995060,0.000000,0.000000
S1906-28-012,52.096524,-37.991701,52.096524,-37.991701,0.000000,0.000000
S1906-28-006,52.103520,-37.992274,52.103520,-37.992274,0.000000,0.000000
S1906-28-010,52.115256,-37.993236,52.115256,-37.993236,0.000000,0.000000
S1906-28-016,52.129337,-37.994389,52.129337,-37.994389,0.000000,0.000000
S1906-28-005,52.147025,-38.005891,52.147025,-38.005891,0.000000,0.000000
S1906-28-009,52.147025,-38.005891,52.147025,-38.005891,0.000000,0.000000
S1906-28-013,52.147025,-38.005891,52.147025,-38.005891,0.000000,0.000000
S1906-28-021,52.182344,-37.998700,52.182344,-37.998700,0.000000,0.000000
S1906-21-008,52.195867,-37.999791,52.195867,-37.999791,0.000000,0.000000
S1906-28-019,51.050497,-37.870839,51.050497,-37.870839,0.000000,0.000000
S1906-21-005,49.317123,-37.680222,49.317123,-37.680222,0.000000,0.000000
S1906-28-024,49.317123,-37.680222,49.317123,-37.680222,0.000000,0.000000
S1906-28-004,49.311386,-37.685067,49.311386,-37.685067,0.000000,0.000000
S1906-28-015,49.311386,-37.685067,49.311386,-37.685067,0.000000,0.000000
S1906-22-185,48.050360,-38.308298,48.050360,-38.308298,0.000000,0.000000
S1906-22-014,48.053257,-38.308630,48.053257,-38.308630,0.000000,0.000000
S1906-22-028,48.055757,-38.307298,48.055757,-38.307298,0.000000,0.000000
S1906-22-004,48.054055,-38.309740,48.054055,-38.309740,0.000000,0.000000
S1906-22-147,48.054055,-38.309740,48.054055,-38.309740,0.000000,0.000000
S1906-22-021,48.061058,-38.302938,48.061058,-38.302938,0.000000,0.000000
S1906-22-007,48.068244,-38.297024,48.068244,-38.297024,0.000000,0.000000
S1906-22-033,48.092761,-38.276850,48.092761,-38.276850,0.000000,0.000000
S1906-22-066,48.094006,-38.275826,48.094006,-38.275826,0.000000,0.000000
S1906-22-045,47.839411,-38.480059,47.839411,-38.480059,0.000000,0.000000
S1906-22-060,47.839411,-38.480059,47.839411,-38.480059,0.000000,0.000000
S1906-22-104,47.784723,-38.516985,47.784723,-38.516985,0.000000,0.000000
S1906-22-089,47.778199,-38.516220,47.778199,-38.516220,0.000000,0.000000
S1906-22-085,47.781546,-38.516612,47.781546,-38.516612,0.000000,0.000000
S1906-22-032,47.796863,-38.518407,47.796863,-38.518407,0.000000,0.000000
S1906-22-075,47.797907,-38.518529,47.797907,-38.518529,0.000000,0.000000
S1906-22-186,47.802886,-38.514459,47.802886,-38.514459,0.000000,0.000000
S1906-22-074,47.804400,-38.514262,47.804400,-38.514262,0.000000,0.000000
S1906-22-158,47.804400,-38.514262,47.804400,-38.514262,0.000000,0.000000
S1906-22-020,47.809623,-38.509990,47.809623,-38.509990,0.000000,0.000000
S1906-22-073,47.809623,-38.509990,47.809623,-38.509990,0.000000,0.000000
S1906-22-098,47.819175,-38.501132,47.819175,-38.501132,0.000000,0.000000
S1906-22-003,47.824491,-38.496781,47.824491,-38.496781,0.000000,0.000000
S1906-22-123,47.817572,-38.494746,47.817572,-38.494746,0.000000,0.000000
S1906-22-181,47.817572,-38.494746,47.817572,-38.494746,0.000000,0.000000
S1906-22-180,47.838520,-38.485294,47.838520,-38.485294,0.000000,0.000000
S1906-22-120,47.846907,-38.479464,47.846907,-38.479464,0.000000,0.000000
S1906-22-176,47.846907,-38.479464,47.846907,-38.479464,0.000000,0.000000
S1906-22-195,47.870982,-38.454114,47.870982,-38.454114,0.000000,0.000000
S1906-22-090,47.888836,-38.447192,47.888836,-38.447192,0.000000,0.000000
S1906-22-106,47.888836,-38.447192,47.888836,-38.447192,0.000000,0.000000
S1906-22-113,47.888836,-38.447192,47.888836,-38.447192,0.000000,0.000000
S1906-22-162,47.888836,-38.447192,47.888836,-38.447192,0.000000,0.000000
S1906-22-097,47.882857,-38.446279,47.882857,-38.446279,0.000000,0.000000
S1906-22-138,47.865465,-38.456293,47.865465,-38.456293,0.000000,0.000000
S1906-22-151,47.866554,-38.456420,47.866554,-38.456420,0.000000,0.000000
S1906-23-015,47.867383,-38.456516,47.867383,-38.456516,0.000000,0.000000
S1906-22-160,47.840369,-38.453369,47.840369,-38.453369,0.000000,0.000000
S1906-22-183,47.844319,-38.453830,47.844319,-38.453830,0.000000,0.000000
S1906-22-102,47.861685,-38.455852,47.861685,-38.455852,0.000000,0.000000
S1906-22-130,47.881008,-38.450477,47.881008,-38.450477,0.000000,0.000000
S1906-22-022,47.885379,-38.447941,47.885379,-38.447941,0.000000,0.000000
S1906-22-127,47.885379,-38.447941,47.885379,-38.447941,0.000000,0.000000
S1906-22-088,47.892399,-38.442189,47.892399,-38.442189,0.000000,0.000000
S1906-22-091,47.892399,-38.442189,47.892399,-38.442189,0.000000,0.000000
S1906-22-187,47.925503,-38.414011,47.925503,-38.414011,0.000000,0.000000
S1906-22-035,47.947618,-38.397963,47.947618,-38.397963,0.000000,0.000000
S1906-22-042,47.947618,-38.397963,47.947618,-38.397963,0.000000,0.000000
S1906-22-188,47.947618,-38.397963,47.947618,-38.397963,0.000000,0.000000
S1906-22-189,47.966530,-38.378094,47.966530,-38.378094,0.000000,0.000000
S1906-22-141,48.013165,-38.342113,48.013165,-38.342113,0.000000,0.000000
S1906-22-068,48.040508,-38.320732,48.040508,-38.320732,0.000000,0.000000
S1906-22-132,48.040508,-38.320732,48.040508,-38.320732,0.000000,0.000000
...